@<TRIPOS>MOLECULE
PDT
  106   121     1     0     0
SMALL
No Charge or Current Charge


@<TRIPOS>ATOM
      1 C1          3.6530   -0.4200   -1.9500 cc        1 PDT      0.000000
      2 C2          2.7060    0.5680   -1.7460 cd        1 PDT      0.000000
      3 S1          1.1200   -0.1310   -1.8520 ss        1 PDT      0.000000
      4 C3          1.7180   -1.6900   -2.2090 cd        1 PDT      0.000000
      5 C4          3.0910   -1.6930   -2.2420 cc        1 PDT      0.000000
      6 O1          3.8000   -2.8150   -2.5130 os        1 PDT      0.000000
      7 C5          5.1700   -2.4850   -2.7910 c3        1 PDT      0.000000
      8 C6          5.7110   -1.4410   -1.8100 c3        1 PDT      0.000000
      9 O2          4.9950   -0.1990   -1.9160 os        1 PDT      0.000000
     10 C7          2.8840    1.9820   -1.4490 cd        1 PDT      0.000000
     11 S2          4.2640    2.5580   -0.5940 ss        1 PDT      0.000000
     12 C8          3.7600    4.2080   -0.6210 cd        1 PDT      0.000000
     13 C9          2.5410    4.3000   -1.2670 cc        1 PDT      0.000000
     14 C10         2.0650    3.0490   -1.7630 cc        1 PDT      0.000000
     15 O3          1.8730    5.4720   -1.4250 os        1 PDT      0.000000
     16 C11         0.5170    5.2440   -1.8340 c3        1 PDT      0.000000
     17 C12         0.4340    4.1840   -2.9310 c3        1 PDT      0.000000
     18 O4          0.9070    2.9130   -2.4650 os        1 PDT      0.000000
     19 C13         4.5710    5.2600   -0.0240 cd        1 PDT      0.000000
     20 C14         5.4150    5.2020    1.0700 cc        1 PDT      0.000000
     21 C15         6.0710    6.4400    1.3490 cc        1 PDT      0.000000
     22 C16         5.6900    7.4710    0.5110 cd        1 PDT      0.000000
     23 S3          4.5890    6.8590   -0.6700 ss        1 PDT      0.000000
     24 C17         6.1080    8.8680    0.5110 cd        1 PDT      0.000000
     25 S4          7.6860    9.3360    1.0250 ss        1 PDT      0.000000
     26 C18         7.4190   11.0270    0.7770 cd        1 PDT      0.000000
     27 C19         6.1340   11.2130    0.3000 cc        1 PDT      0.000000
     28 C20         5.4110    9.9950    0.1160 cc        1 PDT      0.000000
     29 C21         8.4530   12.0140    1.0690 cd        1 PDT      0.000000
     30 C22         8.7230   13.2210    0.4530 cc        1 PDT      0.000000
     31 C23         9.8090   13.9370    1.0470 cc        1 PDT      0.000000
     32 C24        10.4290   13.2620    2.0850 cd        1 PDT      0.000000
     33 S5          9.5930   11.7720    2.3420 ss        1 PDT      0.000000
     34 C25        11.5860   13.6520    2.8970 cd        1 PDT      0.000000
     35 S6         12.3930   15.1640    2.6610 ss        1 PDT      0.000000
     36 C26        13.5700   14.9020    3.8870 cd        1 PDT      0.000000
     37 C27        13.3510   13.6660    4.4620 cc        1 PDT      0.000000
     38 C28        12.2150   12.9780    3.9310 cc        1 PDT      0.000000
     39 C29        14.5910   15.9000    4.1840 cd        1 PDT      0.000000
     40 C30        15.1950   16.8190    3.3480 cc        1 PDT      0.000000
     41 C31        16.1450   17.6570    4.0100 cc        1 PDT      0.000000
     42 C32        16.3140   17.3470    5.3480 cd        1 PDT      0.000000
     43 S7         15.2210   16.0860    5.7800 ss        1 PDT      0.000000
     44 C33        17.2030   17.9460    6.3310 cd        1 PDT      0.000000
     45 S8         17.6560   19.6180    6.2320 ss        1 PDT      0.000000
     46 C34        18.6330   19.5400    7.6340 cd        1 PDT      0.000000
     47 C35        18.5950   18.2910    8.1900 cc        1 PDT      0.000000
     48 C36        17.8100   17.3720    7.4390 cc        1 PDT      0.000000
     49 O5          5.6010    4.0720    1.8020 os        1 PDT      0.000000
     50 C37         6.2480    4.3640    3.0490 c3        1 PDT      0.000000
     51 C38         7.4130    5.3340    2.8580 c3        1 PDT      0.000000
     52 O6          6.9520    6.6030    2.3720 os        1 PDT      0.000000
     53 O7          5.6100   12.4400    0.0400 os        1 PDT      0.000000
     54 C39         4.1860   12.3730   -0.1200 c3        1 PDT      0.000000
     55 C40         3.7710   11.1810   -0.9820 c3        1 PDT      0.000000
     56 O8          4.1350    9.9430   -0.3560 os        1 PDT      0.000000
     57 O9          8.0240   13.6810   -0.6190 os        1 PDT      0.000000
     58 C41         8.7140   14.7630   -1.2610 c3        1 PDT      0.000000
     59 C42         9.2560   15.7660   -0.2460 c3        1 PDT      0.000000
     60 O10        10.2260   15.1550    0.6110 os        1 PDT      0.000000
     61 O11        14.1380   13.1590    5.4490 os        1 PDT      0.000000
     62 C43        13.9020   11.7560    5.6300 c3        1 PDT      0.000000
     63 C44        12.4090   11.4380    5.6370 c3        1 PDT      0.000000
     64 O12        11.8080   11.7600    4.3770 os        1 PDT      0.000000
     65 O13        14.9080   16.9210    2.0220 os        1 PDT      0.000000
     66 C45        15.8840   17.7160    1.3340 c3        1 PDT      0.000000
     67 C46        16.2400   18.9740    2.1250 c3        1 PDT      0.000000
     68 O14        16.8490   18.6340    3.3800 os        1 PDT      0.000000
     69 O15        19.2670   17.9880    9.3270 os        1 PDT      0.000000
     70 C47        18.8080   16.7330    9.8580 c3        1 PDT      0.000000
     71 C48        18.6520   15.6810    8.7570 c3        1 PDT      0.000000
     72 O16        17.6680   16.0650    7.7830 os        1 PDT      0.000000
     73 H1          1.0460   -2.5180   -2.3810 h4        1 PDT      0.000000
     74 H2          5.2320   -2.1210   -3.8240 h1        1 PDT      0.000000
     75 H3          5.7550   -3.4080   -2.7190 h1        1 PDT      0.000000
     76 H4          6.7640   -1.2340   -2.0220 h1        1 PDT      0.000000
     77 H5          5.6360   -1.7980   -0.7740 h1        1 PDT      0.000000
     78 H6          0.1170    6.1950   -2.2000 h1        1 PDT      0.000000
     79 H7         -0.0630    4.9470   -0.9520 h1        1 PDT      0.000000
     80 H8          1.0280    4.4720   -3.8070 h1        1 PDT      0.000000
     81 H9         -0.6050    4.0530   -3.2510 h1        1 PDT      0.000000
     82 H10        19.1670   20.4100    7.9890 h4        1 PDT      0.000000
     83 H11         6.6090    3.4180    3.4640 h1        1 PDT      0.000000
     84 H12         5.5000    4.7770    3.7350 h1        1 PDT      0.000000
     85 H13         8.1500    4.9350    2.1490 h1        1 PDT      0.000000
     86 H14         7.9190    5.5090    3.8130 h1        1 PDT      0.000000
     87 H15         3.8590   13.3070   -0.5880 h1        1 PDT      0.000000
     88 H16         3.7320   12.3120    0.8770 h1        1 PDT      0.000000
     89 H17         4.2400   11.2230   -1.9740 h1        1 PDT      0.000000
     90 H18         2.6850   11.1740   -1.1200 h1        1 PDT      0.000000
     91 H19         8.0090   15.2580   -1.9350 h1        1 PDT      0.000000
     92 H20         9.5270   14.3400   -1.8650 h1        1 PDT      0.000000
     93 H21         8.4540   16.1830    0.3760 h1        1 PDT      0.000000
     94 H22         9.7520   16.5950   -0.7610 h1        1 PDT      0.000000
     95 H23        14.3530   11.4630    6.5830 h1        1 PDT      0.000000
     96 H24        14.4160   11.2140    4.8260 h1        1 PDT      0.000000
     97 H25        11.8860   11.9940    6.4240 h1        1 PDT      0.000000
     98 H26        12.2510   10.3690    5.8130 h1        1 PDT      0.000000
     99 H27        15.4650   17.9900    0.3610 h1        1 PDT      0.000000
    100 H28        16.7730   17.0970    1.1620 h1        1 PDT      0.000000
    101 H29        15.3500   19.5850    2.3230 h1        1 PDT      0.000000
    102 H30        16.9530   19.5860    1.5640 h1        1 PDT      0.000000
    103 H31        17.8570   16.9060   10.3770 h1        1 PDT      0.000000
    104 H32        19.5430   16.3990   10.5980 h1        1 PDT      0.000000
    105 H33        18.3320   14.7290    9.1920 h1        1 PDT      0.000000
    106 H34        19.6040   15.5150    8.2360 h1        1 PDT      0.000000
@<TRIPOS>BOND
     1    1    2 2   
     2    1    9 1   
     3    2    3 1   
     4    2   10 1   
     5    3    4 1   
     6    4    5 2   
     7    4   73 1   
     8    5    1 1   
     9    5    6 1   
    10    6    7 1   
    11    7    8 1   
    12    7   74 1   
    13    7   75 1   
    14    8    9 1   
    15    8   76 1   
    16    8   77 1   
    17   10   14 2   
    18   10   11 1   
    19   11   12 1   
    20   12   13 2   
    21   12   19 1   
    22   13   14 1   
    23   13   15 1   
    24   14   18 1   
    25   15   16 1   
    26   16   17 1   
    27   16   78 1   
    28   16   79 1   
    29   17   18 1   
    30   17   80 1   
    31   17   81 1   
    32   19   23 1   
    33   19   20 2   
    34   20   21 1   
    35   20   49 1   
    36   21   22 2   
    37   21   52 1   
    38   22   23 1   
    39   22   24 1   
    40   24   28 2   
    41   24   25 1   
    42   25   26 1   
    43   26   27 2   
    44   26   29 1   
    45   27   28 1   
    46   27   53 1   
    47   28   56 1   
    48   29   33 1   
    49   29   30 2   
    50   30   31 1   
    51   30   57 1   
    52   31   32 2   
    53   31   60 1   
    54   32   33 1   
    55   32   34 1   
    56   34   38 2   
    57   34   35 1   
    58   35   36 1   
    59   36   37 2   
    60   36   39 1   
    61   37   38 1   
    62   37   61 1   
    63   38   64 1   
    64   39   43 1   
    65   39   40 2   
    66   40   41 1   
    67   40   65 1   
    68   41   42 2   
    69   41   68 1   
    70   42   43 1   
    71   42   44 1   
    72   44   48 2   
    73   44   45 1   
    74   45   46 1   
    75   46   47 2   
    76   46   82 1   
    77   47   48 1   
    78   47   69 1   
    79   48   72 1   
    80   49   50 1   
    81   50   51 1   
    82   50   83 1   
    83   50   84 1   
    84   51   52 1   
    85   51   85 1   
    86   51   86 1   
    87   53   54 1   
    88   54   55 1   
    89   54   87 1   
    90   54   88 1   
    91   55   56 1   
    92   55   89 1   
    93   55   90 1   
    94   57   58 1   
    95   58   59 1   
    96   58   91 1   
    97   58   92 1   
    98   59   60 1   
    99   59   93 1   
   100   59   94 1   
   101   61   62 1   
   102   62   63 1   
   103   62   95 1   
   104   62   96 1   
   105   63   64 1   
   106   63   97 1   
   107   63   98 1   
   108   65   66 1   
   109   66   67 1   
   110   66   99 1   
   111   66  100 1   
   112   67   68 1   
   113   67  101 1   
   114   67  102 1   
   115   69   70 1   
   116   70   71 1   
   117   70  103 1   
   118   70  104 1   
   119   71   72 1   
   120   71  105 1   
   121   71  106 1   
@<TRIPOS>SUBSTRUCTURE
     1 PDT         1 TEMP              0 ****  ****    0 ROOT
