@<TRIPOS>MOLECULE
MOL
  106   121     1     0     1
SMALL
USER_CHARGES
@<TRIPOS>ATOM
  1 C1         -6.842351    4.374467    0.486226 C         1 MOL       -0.1849 ****
  2 C2         -7.328984    5.357469   -0.308595 C         1 MOL        0.4129 ****
  3 O1         -7.999397    5.171412   -1.446937 O         1 MOL       -0.3608 ****
  4 C6         -8.132476    6.330899   -2.256470 C         1 MOL        0.0505 ****
  5 H4         -8.925338    6.118010   -2.957080 H         1 MOL        0.0933 ****
  6 H5         -7.208212    6.493688   -2.798939 H         1 MOL        0.0933 ****
  7 C4         -8.461843    7.538255   -1.403573 C         1 MOL        0.0916 ****
  8 H2         -8.545238    8.426857   -2.010536 H         1 MOL        0.0829 ****
  9 H3         -9.393246    7.382313   -0.869424 H         1 MOL        0.0829 ****
 10 O2         -7.418263    7.776650   -0.482335 O         1 MOL       -0.3354 ****
 11 C3         -7.026520    6.675224    0.183076 C         1 MOL        0.1301 ****
 12 C5         -6.314942    6.659028    1.319120 C         1 MOL       -0.3114 ****
 13 H1         -5.978712    7.507310    1.878017 H         1 MOL        0.2711 ****
 14 S1         -5.982833    5.052155    1.848925 S         1 MOL        0.0156 ****
 15 C98        -6.945722    2.940333    0.282893 C         1 MOL       -0.0491 ****
 16 S97        -5.578547    1.906482    0.542918 S         1 MOL        0.0369 ****
 17 C96        -6.520413    0.464987    0.190590 C         1 MOL       -0.1727 ****
 18 C95        -7.809793    0.827509   -0.161863 C         1 MOL        0.3540 ****
 19 O94        -8.740529   -0.006515   -0.566651 O         1 MOL       -0.3032 ****
 20 C93        -9.941453    0.582590   -1.068767 C         1 MOL        0.0127 ****
 21 H92       -10.696774   -0.183629   -0.995463 H         1 MOL        0.1135 ****
 22 H91        -9.786721    0.843596   -2.107639 H         1 MOL        0.1135 ****
 23 C90       -10.298626    1.807500   -0.255916 C         1 MOL        0.0518 ****
 24 H89       -11.180801    2.286833   -0.651040 H         1 MOL        0.1001 ****
 25 H88       -10.471103    1.540923    0.781678 H         1 MOL        0.1001 ****
 26 O87        -9.252902    2.749731   -0.341408 O         1 MOL       -0.3148 ****
 27 C86        -8.041016    2.227787   -0.086605 C         1 MOL        0.1792 ****
 28 C85        -5.932216   -0.817850    0.199357 C         1 MOL        0.0233 ****
 29 S84        -4.220783   -0.986195   -0.040565 S         1 MOL        0.0191 ****
 30 C83        -4.279149   -2.747013    0.148472 C         1 MOL       -0.0918 ****
 31 C82        -5.644199   -3.121412    0.388175 C         1 MOL        0.3027 ****
 32 O81        -6.008479   -4.340183    0.680683 O         1 MOL       -0.2363 ****
 33 C80        -7.413068   -4.570429    0.827181 C         1 MOL       -0.0218 ****
 34 H79        -7.501733   -5.471828    1.411930 H         1 MOL        0.1251 ****
 35 H78        -7.833566   -4.728382   -0.156684 H         1 MOL        0.1251 ****
 36 C77        -8.056855   -3.382964    1.507772 C         1 MOL        0.0232 ****
 37 H76        -9.126659   -3.507377    1.569433 H         1 MOL        0.1083 ****
 38 H75        -7.652720   -3.247063    2.505163 H         1 MOL        0.1083 ****
 39 O74        -7.825504   -2.223962    0.736980 O         1 MOL       -0.2949 ****
 40 C73        -6.529755   -2.061108    0.409280 C         1 MOL        0.1621 ****
 41 C72        -3.139474   -3.489520    0.074228 C         1 MOL       -0.0153 ****
 42 S71        -1.572346   -2.687893    0.103862 S         1 MOL        0.0387 ****
 43 C70        -0.671717   -4.212567   -0.006244 C         1 MOL       -0.0932 ****
 44 C69        -1.640256   -5.291945   -0.133128 C         1 MOL        0.3218 ****
 45 O68        -1.268735   -6.536298   -0.385390 O         1 MOL       -0.2989 ****
 46 C67        -2.307406   -7.389031   -0.850809 C         1 MOL       -0.0199 ****
 47 H66        -1.954678   -8.398071   -0.708145 H         1 MOL        0.1287 ****
 48 H65        -2.462018   -7.203352   -1.906313 H         1 MOL        0.1287 ****
 49 C64        -3.576424   -7.121073   -0.070390 C         1 MOL       -0.0054 ****
 50 H63        -4.397978   -7.711975   -0.443883 H         1 MOL        0.1146 ****
 51 H62        -3.428892   -7.329984    0.982959 H         1 MOL        0.1146 ****
 52 O61        -3.948338   -5.765922   -0.230922 O         1 MOL       -0.3014 ****
 53 C60        -2.933709   -4.909554   -0.067589 C         1 MOL        0.1809 ****
 54 C59         0.671722   -4.212566    0.006259 C         1 MOL       -0.0932 ****
 55 S58         1.572348   -2.687890   -0.103854 S         1 MOL        0.0387 ****
 56 C57         3.139479   -3.489516   -0.074222 C         1 MOL       -0.0153 ****
 57 C56         2.933715   -4.909550    0.067605 C         1 MOL        0.1809 ****
 58 O55         3.948345   -5.765916    0.230940 O         1 MOL       -0.3014 ****
 59 C54         3.576432   -7.121070    0.070432 C         1 MOL       -0.0054 ****
 60 H53         4.397987   -7.711966    0.443933 H         1 MOL        0.1146 ****
 61 H52         3.428899   -7.329998   -0.982915 H         1 MOL        0.1146 ****
 62 C51         2.307415   -7.389017    0.850856 C         1 MOL       -0.0199 ****
 63 H50         1.954688   -8.398060    0.708209 H         1 MOL        0.1287 ****
 64 H49         2.462028   -7.203320    1.906357 H         1 MOL        0.1287 ****
 65 O48         1.268743   -6.536293    0.385424 O         1 MOL       -0.2989 ****
 66 C47         1.640263   -5.291942    0.133151 C         1 MOL        0.3218 ****
 67 C46         4.279151   -2.747010   -0.148476 C         1 MOL       -0.0918 ****
 68 S45         4.220784   -0.986190    0.040551 S         1 MOL        0.0191 ****
 69 C44         5.932216   -0.817845   -0.199380 C         1 MOL        0.0233 ****
 70 C43         6.529755   -2.061106   -0.409303 C         1 MOL        0.1621 ****
 71 O42         7.825501   -2.223958   -0.737012 O         1 MOL       -0.2949 ****
 72 C41         8.056849   -3.382964   -1.507799 C         1 MOL        0.0232 ****
 73 H40         9.126652   -3.507375   -1.569467 H         1 MOL        0.1083 ****
 74 H39         7.652706   -3.247068   -2.505187 H         1 MOL        0.1083 ****
 75 C38         7.413068   -4.570426   -0.827197 C         1 MOL       -0.0218 ****
 76 H37         7.501730   -5.471828   -1.411941 H         1 MOL        0.1251 ****
 77 H36         7.833574   -4.728373    0.156666 H         1 MOL        0.1251 ****
 78 O35         6.008480   -4.340180   -0.680689 O         1 MOL       -0.2363 ****
 79 C34         5.644202   -3.121408   -0.388187 C         1 MOL        0.3027 ****
 80 C33         6.520413    0.464990   -0.190614 C         1 MOL       -0.1727 ****
 81 S32         5.578541    1.906488   -0.542915 S         1 MOL        0.0369 ****
 82 C31         6.945716    2.940339   -0.282893 C         1 MOL       -0.0491 ****
 83 C30         8.041016    2.227791    0.086585 C         1 MOL        0.1792 ****
 84 O29         9.252904    2.749735    0.341380 O         1 MOL       -0.3148 ****
 85 C28        10.298628    1.807507    0.255859 C         1 MOL        0.0518 ****
 86 H27        11.180809    2.286838    0.650975 H         1 MOL        0.1001 ****
 87 H26        10.471089    1.540944   -0.781741 H         1 MOL        0.1001 ****
 88 C25         9.941472    0.582586    1.068701 C         1 MOL        0.0127 ****
 89 H24        10.696792   -0.183631    0.995372 H         1 MOL        0.1135 ****
 90 H23         9.786757    0.843577    2.107579 H         1 MOL        0.1135 ****
 91 O22         8.740539   -0.006514    0.566598 O         1 MOL       -0.3032 ****
 92 C21         7.809797    0.827513    0.161830 C         1 MOL        0.3540 ****
 93 C20         6.842338    4.374474   -0.486211 C         1 MOL       -0.1849 ****
 94 S19         5.982790    5.052170   -1.848887 S         1 MOL        0.0156 ****
 95 C18         6.314907    6.659039   -1.319077 C         1 MOL       -0.3114 ****
 96 H17         5.978663    7.507326   -1.877959 H         1 MOL        0.2711 ****
 97 C16         7.026508    6.675229   -0.183046 C         1 MOL        0.1301 ****
 98 O15         7.418260    7.776651    0.482366 O         1 MOL       -0.3354 ****
 99 C14         8.461856    7.538251    1.403583 C         1 MOL        0.0916 ****
100 H13         8.545261    8.426849    2.010552 H         1 MOL        0.0829 ****
101 H12         9.393250    7.382314    0.869417 H         1 MOL        0.0829 ****
102 C11         8.132508    6.330888    2.256478 C         1 MOL        0.0505 ****
103 H10         8.925381    6.117995    2.957072 H         1 MOL        0.0933 ****
104 H9          7.208252    6.493671    2.798964 H         1 MOL        0.0933 ****
105 O8          7.999416    5.171407    1.446937 O         1 MOL       -0.3608 ****
106 C7          7.328984    5.357471    0.308609 C         1 MOL        0.4129 ****
@<TRIPOS>BOND
    1     1     2 1
    2     1    14 1
    3     1    15 1
    4     2     3 1
    5     2    11 1
    6     3     4 1
    7     4     5 1
    8     4     6 1
    9     4     7 1
   10     7     8 1
   11     7     9 1
   12     7    10 1
   13    10    11 1
   14    11    12 1
   15    12    13 1
   16    12    14 1
   17    15    16 1
   18    15    27 1
   19    16    17 1
   20    17    18 1
   21    17    28 1
   22    18    19 1
   23    18    27 1
   24    19    20 1
   25    20    21 1
   26    20    22 1
   27    20    23 1
   28    23    24 1
   29    23    25 1
   30    23    26 1
   31    26    27 1
   32    28    29 1
   33    28    40 1
   34    29    30 1
   35    30    31 1
   36    30    41 1
   37    31    32 1
   38    31    40 1
   39    32    33 1
   40    33    34 1
   41    33    35 1
   42    33    36 1
   43    36    37 1
   44    36    38 1
   45    36    39 1
   46    39    40 1
   47    41    42 1
   48    41    53 1
   49    42    43 1
   50    43    44 1
   51    43    54 1
   52    44    45 1
   53    44    53 1
   54    45    46 1
   55    46    47 1
   56    46    48 1
   57    46    49 1
   58    49    50 1
   59    49    51 1
   60    49    52 1
   61    52    53 1
   62    54    55 1
   63    54    66 1
   64    55    56 1
   65    56    57 1
   66    56    67 1
   67    57    58 1
   68    57    66 1
   69    58    59 1
   70    59    60 1
   71    59    61 1
   72    59    62 1
   73    62    63 1
   74    62    64 1
   75    62    65 1
   76    65    66 1
   77    67    68 1
   78    67    79 1
   79    68    69 1
   80    69    70 1
   81    69    80 1
   82    70    71 1
   83    70    79 1
   84    71    72 1
   85    72    73 1
   86    72    74 1
   87    72    75 1
   88    75    76 1
   89    75    77 1
   90    75    78 1
   91    78    79 1
   92    80    81 1
   93    80    92 1
   94    81    82 1
   95    82    83 1
   96    82    93 1
   97    83    84 1
   98    83    92 1
   99    84    85 1
  100    85    86 1
  101    85    87 1
  102    85    88 1
  103    88    89 1
  104    88    90 1
  105    88    91 1
  106    91    92 1
  107    93    94 1
  108    93   106 1
  109    94    95 1
  110    95    96 1
  111    95    97 1
  112    97    98 1
  113    97   106 1
  114    98    99 1
  115    99   100 1
  116    99   101 1
  117    99   102 1
  118   102   103 1
  119   102   104 1
  120   102   105 1
  121   105   106 1
@<TRIPOS>SUBSTRUCTURE
      1  MOL              1 ****               0 ****  ****  


