@<TRIPOS>MOLECULE
PSS
  101   105     1     0     0
SMALL
No Charge or Current Charge


@<TRIPOS>ATOM
      1 C1          3.3290    6.0260   -1.6590 c3        1 PSS     -0.152900
      2 H1          2.3830    6.5520   -1.7480 hc        1 PSS      0.037200
      3 H2          4.0630    6.7150   -1.2550 hc        1 PSS      0.037200
      4 H4          3.6520    5.7480   -2.6580 hc        1 PSS      0.037200
      5 C2          3.1850    4.7870   -0.7570 c3        1 PSS      0.110800
      6 H3          2.8150    5.1340    0.2050 hc        1 PSS      0.008900
      7 C3          4.5550    4.1670   -0.5120 ca        1 PSS     -0.023700
      8 C4          5.1720    4.3070    0.7290 ca        1 PSS     -0.107100
      9 H7          4.6710    4.8450    1.5140 ha        1 PSS      0.121600
     10 C5          6.4120    3.7520    0.9810 ca        1 PSS     -0.146000
     11 H5          6.8750    3.8630    1.9430 ha        1 PSS      0.162300
     12 C6          7.0520    3.0370   -0.0190 ca        1 PSS     -0.066300
     13 C7          6.4780    2.9160   -1.2720 ca        1 PSS     -0.146000
     14 H6          6.9900    2.3730   -2.0430 ha        1 PSS      0.162300
     15 C8          5.2410    3.4900   -1.5130 ca        1 PSS     -0.107100
     16 H8          4.8050    3.3810   -2.4890 ha        1 PSS      0.121600
     17 S1          8.6040    2.2650    0.3180 s6        1 PSS      1.073900
     18 O1          9.3860    3.1520    1.1120 o         1 PSS     -0.545000
     19 O2          8.2250    1.0810    1.2680 oh        1 PSS     -0.524700
     20 H9          7.8490    0.3100    0.8170 ho        1 PSS      0.418900
     21 O3          9.1160    1.7450   -0.9080 o         1 PSS     -0.545000
     22 C89         2.1130    3.8400   -1.3420 c3        1 PSS     -0.036200
     23 H88         1.2800    4.4700   -1.6410 hc        1 PSS      0.027800
     24 H87         2.4800    3.3850   -2.2570 hc        1 PSS      0.027800
     25 C86         1.5440    2.7420   -0.4090 c3        1 PSS      0.059100
     26 H85         1.2990    3.2200    0.5380 hc        1 PSS      0.020500
     27 C84         2.5560    1.6450   -0.1080 ca        1 PSS     -0.071900
     28 C83         3.0230    1.4540    1.1830 ca        1 PSS     -0.131800
     29 H82         2.6730    2.0890    1.9770 ha        1 PSS      0.122000
     30 C81         3.9280    0.4460    1.4800 ca        1 PSS     -0.099500
     31 H80         4.2680    0.2930    2.4860 ha        1 PSS      0.146600
     32 C79         4.3770   -0.3780    0.4670 ca        1 PSS     -0.066300
     33 C78         3.9370   -0.1970   -0.8380 ca        1 PSS     -0.099500
     34 H77         4.2820   -0.8480   -1.6190 ha        1 PSS      0.146600
     35 C76         3.0330    0.8060   -1.1130 ca        1 PSS     -0.131800
     36 H75         2.6830    0.9200   -2.1230 ha        1 PSS      0.122000
     37 S74         5.5880   -1.6070    0.8350 s6        1 PSS      1.073900
     38 O73         5.5020   -1.9200    2.2230 o         1 PSS     -0.545000
     39 O72         5.1970   -2.8080   -0.0490 oh        1 PSS     -0.524700
     40 H71         4.4050   -3.3310    0.2400 ho        1 PSS      0.418900
     41 O70         6.8500   -1.1490    0.3140 o         1 PSS     -0.545000
     42 C69         0.2060    2.2300   -1.0060 c3        1 PSS     -0.048500
     43 H68        -0.4110    3.1110   -1.1610 hc        1 PSS      0.017900
     44 H67         0.3830    1.8150   -1.9940 hc        1 PSS      0.017900
     45 C66        -0.6150    1.2210   -0.1620 c3        1 PSS      0.048000
     46 H65        -0.5810    1.5610    0.8720 hc        1 PSS      0.014500
     47 C64        -0.0300   -0.1840   -0.2040 ca        1 PSS     -0.011600
     48 C63         0.4610   -0.7770    0.9510 ca        1 PSS     -0.066400
     49 H62         0.4140   -0.2450    1.8840 ha        1 PSS      0.087500
     50 C61         1.0380   -2.0320    0.9200 ca        1 PSS     -0.110200
     51 H60         1.4380   -2.4710    1.8140 ha        1 PSS      0.119400
     52 C59         1.1250   -2.7180   -0.2800 ca        1 PSS     -0.044800
     53 C58         0.6220   -2.1530   -1.4380 ca        1 PSS     -0.110200
     54 H57         0.6970   -2.6930   -2.3620 ha        1 PSS      0.119400
     55 C56         0.0480   -0.8950   -1.3940 ca        1 PSS     -0.066400
     56 H55        -0.3310   -0.4670   -2.3060 ha        1 PSS      0.087500
     57 S54         1.8690   -4.3320   -0.3130 s6        1 PSS      1.055400
     58 O53         0.8600   -5.2230    0.2560 o         1 PSS     -0.598500
     59 O52         2.1890   -4.5950   -1.6920 o         1 PSS     -0.598500
     60 O51         3.0350   -4.2050    0.5650 o         1 PSS     -0.598500
     61 C50        -2.1010    1.2680   -0.5980 c3        1 PSS     -0.048500
     62 H49        -2.3960    2.3140   -0.6110 hc        1 PSS      0.017900
     63 H48        -2.1950    0.9190   -1.6220 hc        1 PSS      0.017900
     64 C47        -3.1170    0.5230    0.3050 c3        1 PSS     -0.004400
     65 H46        -2.8550    0.7480    1.3370 hc        1 PSS      0.051700
     66 C45        -3.0990   -0.9960    0.1600 ca        1 PSS     -0.068900
     67 C44        -2.7840   -1.7990    1.2440 ca        1 PSS     -0.067100
     68 H43        -2.5560   -1.3470    2.1930 ha        1 PSS      0.107600
     69 C42        -2.7040   -3.1780    1.1230 ca        1 PSS     -0.165700
     70 H41        -2.4280   -3.7880    1.9620 ha        1 PSS      0.160800
     71 C40        -2.9660   -3.7670   -0.0970 ca        1 PSS     -0.066300
     72 C39        -3.3390   -2.9890   -1.1860 ca        1 PSS     -0.165700
     73 H38        -3.5660   -3.4590   -2.1240 ha        1 PSS      0.160800
     74 C37        -3.4050   -1.6170   -1.0520 ca        1 PSS     -0.067100
     75 H36        -3.6730   -1.0260   -1.9100 ha        1 PSS      0.107600
     76 S35        -2.8010   -5.5190   -0.2830 s6        1 PSS      1.073900
     77 O34        -3.8140   -5.9580   -1.1860 o         1 PSS     -0.545000
     78 O33        -1.4540   -5.6900   -1.0350 oh        1 PSS     -0.524700
     79 H32        -0.6420   -5.5750   -0.4920 ho        1 PSS      0.418900
     80 O31        -2.7120   -6.0870    1.0240 o         1 PSS     -0.545000
     81 C30        -4.5300    1.0980    0.0660 c3        1 PSS     -0.005700
     82 H29        -4.4920    2.1760    0.1950 hc        1 PSS      0.022800
     83 H28        -4.8290    0.9260   -0.9650 hc        1 PSS      0.022800
     84 C27        -5.6040    0.5290    1.0080 c3        1 PSS     -0.003000
     85 H26        -5.6820   -0.5420    0.8740 hc        1 PSS      0.030400
     86 H25        -5.3010    0.6940    2.0380 hc        1 PSS      0.030400
     87 C24        -6.9570    1.1650    0.7760 ca        1 PSS      0.044500
     88 C23        -7.8240    0.6520   -0.1860 ca        1 PSS     -0.178800
     89 H22        -7.5380   -0.2190   -0.7490 ha        1 PSS      0.152000
     90 C21        -9.0480    1.2420   -0.4300 ca        1 PSS     -0.121900
     91 H20        -9.7060    0.8490   -1.1810 ha        1 PSS      0.169600
     92 C19        -9.4180    2.3610    0.3050 ca        1 PSS     -0.066300
     93 C18        -8.5730    2.8920    1.2650 ca        1 PSS     -0.121900
     94 H17        -8.8650    3.7680    1.8130 ha        1 PSS      0.169600
     95 C16        -7.3480    2.2910    1.4930 ca        1 PSS     -0.178800
     96 H15        -6.6910    2.7030    2.2370 ha        1 PSS      0.152000
     97 S14       -10.9860    3.1030    0.0170 s6        1 PSS      1.073900
     98 O13       -11.3310    2.9530   -1.3510 o         1 PSS     -0.545000
     99 O12       -11.9890    2.1700    0.8250 oh        1 PSS     -0.524700
    100 H11       -12.1850    2.5650    1.6700 ho        1 PSS      0.418900
    101 O10       -11.0230    4.3780    0.6610 o         1 PSS     -0.545000
@<TRIPOS>BOND
     1    1    2 1   
     2    1    3 1   
     3    1    4 1   
     4    1    5 1   
     5    5    6 1   
     6    5    7 1   
     7    5   22 1   
     8    7    8 ar  
     9    7   15 ar  
    10    8    9 1   
    11    8   10 ar  
    12   10   11 1   
    13   10   12 ar  
    14   12   13 ar  
    15   12   17 1   
    16   13   14 1   
    17   13   15 ar  
    18   15   16 1   
    19   17   18 1   
    20   17   19 1   
    21   17   21 1   
    22   19   20 1   
    23   22   23 1   
    24   22   24 1   
    25   22   25 1   
    26   25   26 1   
    27   25   27 1   
    28   25   42 1   
    29   27   28 ar  
    30   27   35 ar  
    31   28   29 1   
    32   28   30 ar  
    33   30   31 1   
    34   30   32 ar  
    35   32   33 ar  
    36   32   37 1   
    37   33   34 1   
    38   33   35 ar  
    39   35   36 1   
    40   37   38 1   
    41   37   39 1   
    42   37   41 1   
    43   39   40 1   
    44   42   43 1   
    45   42   44 1   
    46   42   45 1   
    47   45   46 1   
    48   45   47 1   
    49   45   61 1   
    50   47   48 ar  
    51   47   55 ar  
    52   48   49 1   
    53   48   50 ar  
    54   50   51 1   
    55   50   52 ar  
    56   52   53 ar  
    57   52   57 1   
    58   53   54 1   
    59   53   55 ar  
    60   55   56 1   
    61   57   58 1   
    62   57   59 1   
    63   57   60 1   
    64   61   62 1   
    65   61   63 1   
    66   61   64 1   
    67   64   65 1   
    68   64   66 1   
    69   64   81 1   
    70   66   67 ar  
    71   66   74 ar  
    72   67   68 1   
    73   67   69 ar  
    74   69   70 1   
    75   69   71 ar  
    76   71   72 ar  
    77   71   76 1   
    78   72   73 1   
    79   72   74 ar  
    80   74   75 1   
    81   76   77 1   
    82   76   78 1   
    83   76   80 1   
    84   78   79 1   
    85   81   82 1   
    86   81   83 1   
    87   81   84 1   
    88   84   85 1   
    89   84   86 1   
    90   84   87 1   
    91   87   88 ar  
    92   87   95 ar  
    93   88   89 1   
    94   88   90 ar  
    95   90   91 1   
    96   90   92 ar  
    97   92   93 ar  
    98   92   97 1   
    99   93   94 1   
   100   93   95 ar  
   101   95   96 1   
   102   97   98 1   
   103   97   99 1   
   104   97  101 1   
   105   99  100 1   
@<TRIPOS>SUBSTRUCTURE
     1 PSS         1 TEMP              0 ****  ****    0 ROOT
