@<TRIPOS>MOLECULE
PSS
   61    63     1     0     0
SMALL
No Charge or Current Charge


@<TRIPOS>ATOM
      1 C1         -1.5780   -4.6610   -1.3200 c3        1 PSS     -0.201900
      2 H1         -0.7160   -5.3220   -1.3530 hc        1 PSS      0.047200
      3 H3         -2.4380   -5.2430   -1.0070 hc        1 PSS      0.047200
      4 H8         -1.7680   -4.3100   -2.3300 hc        1 PSS      0.047200
      5 C2         -1.3330   -3.4850   -0.3600 c3        1 PSS      0.130700
      6 H2         -1.1220   -3.9090    0.6180 hc        1 PSS      0.000600
      7 C3         -2.6010   -2.6520   -0.2180 ca        1 PSS     -0.063700
      8 C4         -3.3390   -2.7080    0.9590 ca        1 PSS     -0.074900
      9 H6         -3.0010   -3.3300    1.7700 ha        1 PSS      0.110000
     10 C5         -4.4970   -1.9660    1.1170 ca        1 PSS     -0.166800
     11 H4         -5.0610   -2.0160    2.0280 ha        1 PSS      0.161800
     12 C6         -4.9290   -1.1530    0.0840 ca        1 PSS     -0.075500
     13 C7         -4.2250   -1.1000   -1.1090 ca        1 PSS     -0.166800
     14 H5         -4.5700   -0.4680   -1.9030 ha        1 PSS      0.161800
     15 C8         -3.0760   -1.8550   -1.2550 ca        1 PSS     -0.074900
     16 H7         -2.5340   -1.7940   -2.1810 ha        1 PSS      0.110000
     17 S1         -6.3800   -0.1620    0.2960 s6        1 PSS      1.117500
     18 O1         -7.1980   -0.7940    1.2830 o         1 PSS     -0.561600
     19 O2         -5.8580    1.1440    0.9410 oh        1 PSS     -0.557700
     20 H9         -5.3290    1.7310    0.3370 ho        1 PSS      0.435900
     21 O3         -6.9180    0.1020   -1.0000 o         1 PSS     -0.561600
     22 C49        -0.0670   -2.7140   -0.7940 c3        1 PSS     -0.022700
     23 H48        -0.2170   -2.2790   -1.7770 hc        1 PSS      0.023100
     24 H47         0.7140   -3.4620   -0.9170 hc        1 PSS      0.023100
     25 C46         0.4630   -1.6320    0.1770 c3        1 PSS     -0.005200
     26 H45         0.3620   -2.0230    1.1880 hc        1 PSS      0.035100
     27 C44        -0.3300   -0.3330    0.1080 ca        1 PSS     -0.016100
     28 C43        -1.0440    0.1210    1.2070 ca        1 PSS     -0.130000
     29 H42        -1.0100   -0.4320    2.1300 ha        1 PSS      0.093800
     30 C41        -1.8420    1.2520    1.1270 ca        1 PSS     -0.084600
     31 H40        -2.4080    1.5830    1.9770 ha        1 PSS      0.139300
     32 C39        -1.9310    1.9530   -0.0610 ca        1 PSS     -0.109900
     33 C38        -1.1750    1.5490   -1.1510 ca        1 PSS     -0.084600
     34 H37        -1.2250    2.1170   -2.0600 ha        1 PSS      0.139300
     35 C36        -0.3810    0.4210   -1.0630 ca        1 PSS     -0.130000
     36 H35         0.1790    0.1110   -1.9290 ha        1 PSS      0.093800
     37 S34        -3.1050    3.2900   -0.2240 s6        1 PSS      1.123500
     38 O33        -3.1940    3.8840    1.0900 o         1 PSS     -0.637900
     39 O32        -2.5820    4.1360   -1.2700 o         1 PSS     -0.637900
     40 O31        -4.3440    2.6000   -0.6230 o         1 PSS     -0.637900
     41 C30         1.9680   -1.4040   -0.0680 c3        1 PSS     -0.008300
     42 H29         2.1260   -1.0390   -1.0800 hc        1 PSS      0.009800
     43 H28         2.4850   -2.3590   -0.0060 hc        1 PSS      0.009800
     44 C27         2.6130   -0.4280    0.9280 c3        1 PSS      0.014500
     45 H26         2.1030    0.5260    0.8860 hc        1 PSS      0.021300
     46 H25         2.4830   -0.8080    1.9380 hc        1 PSS      0.021300
     47 C24         4.0860   -0.2230    0.6560 ca        1 PSS      0.073700
     48 C23         4.5090    0.7580   -0.2370 ca        1 PSS     -0.195500
     49 H22         3.7810    1.3860   -0.7180 ha        1 PSS      0.154600
     50 C21         5.8510    0.9380   -0.5140 ca        1 PSS     -0.119800
     51 H20         6.1680    1.6880   -1.2140 ha        1 PSS      0.171800
     52 C19         6.7870    0.1290    0.1120 ca        1 PSS     -0.075500
     53 C18         6.3920   -0.8600    1.0000 ca        1 PSS     -0.119800
     54 H17         7.1250   -1.4900    1.4660 ha        1 PSS      0.171800
     55 C16         5.0470   -1.0270    1.2660 ca        1 PSS     -0.195500
     56 H15         4.7380   -1.7920    1.9560 ha        1 PSS      0.154600
     57 S14         8.4990    0.3690   -0.2030 s6        1 PSS      1.117500
     58 O13         8.6540    1.1460   -1.3920 o         1 PSS     -0.561600
     59 O12         8.9710    1.3010    0.9980 oh        1 PSS     -0.557700
     60 H11         8.9720    2.2110    0.7150 ho        1 PSS      0.435900
     61 O10         9.1860   -0.8610   -0.0270 o         1 PSS     -0.561600
@<TRIPOS>BOND
     1    1    2 1   
     2    1    3 1   
     3    1    4 1   
     4    1    5 1   
     5    5    6 1   
     6    5    7 1   
     7    5   22 1   
     8    7    8 ar  
     9    7   15 ar  
    10    8    9 1   
    11    8   10 ar  
    12   10   11 1   
    13   10   12 ar  
    14   12   13 ar  
    15   12   17 1   
    16   13   14 1   
    17   13   15 ar  
    18   15   16 1   
    19   17   18 1   
    20   17   19 1   
    21   17   21 1   
    22   19   20 1   
    23   22   23 1   
    24   22   24 1   
    25   22   25 1   
    26   25   26 1   
    27   25   27 1   
    28   25   41 1   
    29   27   28 ar  
    30   27   35 ar  
    31   28   29 1   
    32   28   30 ar  
    33   30   31 1   
    34   30   32 ar  
    35   32   33 ar  
    36   32   37 1   
    37   33   34 1   
    38   33   35 ar  
    39   35   36 1   
    40   37   38 1   
    41   37   39 1   
    42   37   40 1   
    43   41   42 1   
    44   41   43 1   
    45   41   44 1   
    46   44   45 1   
    47   44   46 1   
    48   44   47 1   
    49   47   48 ar  
    50   47   55 ar  
    51   48   49 1   
    52   48   50 ar  
    53   50   51 1   
    54   50   52 ar  
    55   52   53 ar  
    56   52   57 1   
    57   53   54 1   
    58   53   55 ar  
    59   55   56 1   
    60   57   58 1   
    61   57   59 1   
    62   57   61 1   
    63   59   60 1   
@<TRIPOS>SUBSTRUCTURE
     1 PSS         1 TEMP              0 ****  ****    0 ROOT
